LNSWnetwork/LF510.DAT
(POWERFLOW,CASEID=LF510,PROJECT=冬季      )
/PF_MAP,FILE = LF510.MAP\         
/NEW_BASE,FILE = LF510.BSE\       
/MVA_BASE = 100\                  
/P_ANALYSIS,LEVEL=4\             
/NETWORK_DATA\                   

C PSASP 潮流作业编号: 510
C PSASP 潮流作业信息:                                                                                                                                                                                                         
C PSASP->BPA转换程序：V3.3.0, May 23 2014 13:53:27, By HOFO.

B     temp21  220.1D                          
L     辽城昂22220. temp21  220.             .0001



B     辽高岭51500.1A                                                            辽高岭500-1
B     秦高岭50500.1B                                                            秦高岭50-1
BD    辽高岭P1 1061A    2  60.   5. 120.     4000.辽高岭51500.
BD    秦高岭P2 1061B    2  60.   5. 120.     4000.秦高岭50500.
LD    辽高岭P1 106 秦高岭P2 106  4000 .0001    1.      R 750. 250. 15. 17.
T     辽高岭51500. 辽高岭P1 106  600.       .02667             525.105.5
T     秦高岭50500. 秦高岭P2 106  600.         .028             525.105.5
R     辽高岭51500.1辽高岭P1 106  辽高岭P1 10658406472.518
R     秦高岭50500.1秦高岭P2 106  秦高岭P2 10658406472.518
B     辽高岭52500.1A                                                            辽高岭500-2
B     秦高岭52500.1B                                                            秦高岭50-2
BD    辽高岭P2 1061A    2  60.   5. 120.     4000.辽高岭52500.
BD    秦高岭P3 1061B    2  60.   5. 120.     4000.秦高岭52500.
LD    辽高岭P2 106 秦高岭P3 106  4000 .0001    1.      R 750. 250. 15. 17.
T     辽高岭52500. 辽高岭P2 106  600.       .02667             525.105.5
T     秦高岭52500. 秦高岭P3 106  600.         .028             525.105.5
R     辽高岭52500.1辽高岭P2 106  辽高岭P2 10658406472.518
R     秦高岭52500.1秦高岭P3 106  秦高岭P3 10658406472.518
B     蒙东伊6 500.1C                                                            蒙东伊敏换流500-1
B     辽穆家51500.1D                                                            辽穆家500-1
BD    蒙东伊P1210.1C    2 145.   5. 120.     4000.蒙东伊6 500.
BD    蒙东伊N1210.1C    2 145.   5. 120.     4000.蒙东伊6 500.
BD    辽穆家P2 2021D    2 145.   5. 120.     4000.辽穆家51500.
BD    辽穆家N2 2021D    2 145.   5. 120.     4000.辽穆家51500.
LD    蒙东伊P1210. 辽穆家P2 202  400010.442808.12      R 500. 500. 15. 17.
LD    蒙东伊N1210. 辽穆家N2 202  400010.442808.12      R 500. 500. 15. 17.
T     蒙东伊6 500. 蒙东伊P1210.  1785       .00896             525. 210.
T     蒙东伊6 500. 蒙东伊N1210.  1785       .00896             525. 210.
T     辽穆家51500. 辽穆家P2 202  1711       .00982             525.201.6
T     辽穆家51500. 辽穆家N2 202  1711       .00982             525.201.6
R     蒙东伊6 500.1蒙东伊P1210.  蒙东伊P1210. 702. 492.33
R     蒙东伊6 500.1蒙东伊N1210.  蒙东伊N1210. 702. 492.33
R     辽穆家51500.1辽穆家P2 202  辽穆家P2 202 908. 298.33
R     辽穆家51500.1辽穆家N2 202  辽穆家N2 202 908. 298.33
B     俄换流50500.1E              200.                                          俄换流500           C 450 L   0
B     黑换流50500.1F              100.                                          黑换流500           C 500 L   0
BD    俄换流P152.91E    2  46.   5. 120.     4000.俄换流50500.
BD    俄换流N152.91E    2  46.   5. 120.     4000.俄换流50500.
BD    黑换流P252.91F    2  46.   5. 120.     4000.黑换流50500.
BD    黑换流N252.91F    2  46.   5. 120.     4000.黑换流50500.
LD    俄换流P152.9 黑换流P252.9  4000 .0001    1.      R 100. 125. 15. 17.
LD    俄换流N152.9 黑换流N252.9  4000 .0001    1.      R 100. 125. 15. 17.
T     俄换流50500. 俄换流P152.9   298       .05362             500.52.88
T     俄换流50500. 俄换流N152.9   298       .05362             500.52.88
T     黑换流50500. 黑换流P252.9   298       .05362             525.52.88
T     黑换流50500. 黑换流N252.9   298       .05362             525.52.88
R     俄换流50500.1俄换流P152.9  俄换流P152.9 550. 450.17
R     俄换流50500.1俄换流N152.9  俄换流N152.9 550. 450.17
R     黑换流50500.1黑换流P252.9  黑换流P252.9577.5472.517
R     黑换流50500.1黑换流N252.9  黑换流N252.9577.5472.517
B     秦高岭51500.1B              1932                                          秦高岭50            C1932 L   0
B     辽高岭50500.1A              1386                                          辽高岭500           C1386 L   0
B     秦高岭53500.1B                                                            秦高岭50-3
B     秦高岭54500.1B                                                            秦高岭50-4
B     辽高岭53500.1A                                                            辽高岭500-3
B     辽高岭54500.1A                                                            辽高岭500-4
B     华北等值500.1B                                                            华北等值500-1
BS    华北等0 500.1B                  99999999.9999.-99991.05                   华北等值500
B     吉合心50500.1G                                                            吉合心500
B     吉合南合500.1G              -124                                          吉合南合侧DK1       C   0 L-124
B     吉合南南500.1G              -136                                          吉合南南侧DK2       C   0 L-136
B     吉-林平0500.1H              -109                                          吉-林平平侧DK       C   0 L-109
B     吉平安50500.1I                                                            吉平安500
B     黑永包永500.1E              -136                                          黑永包永侧DK        C   0 L-136
B     黑永源50500.1E                                                            黑永源500
B     黑林平林500.1J              -109                                          黑林平林侧DK        C   0 L-109
B     黑林海50500.1H                                                            黑林海500
B     吉包家50500.1K                                                            吉包家500
B     黑哈南50500.1E                                                            黑哈南500
B     吉长山22220.1L                                                            吉长山220           C   0 L  -0
B     黑新华22220.1M                                                            黑新华220
B     吉梨树50500.1N                                                            吉梨树500
B     吉蒲梨梨500.1N              -136                                          吉蒲梨梨侧DK1       C   0 L-136
B     吉东丰50500.1N                                                            吉东丰500-1
B     吉丰徐徐500.1O              -136                                          吉丰徐徐侧DK1       C   0 L-136
B     辽蒲河50500.1P                                                            辽蒲河500
B     辽沙岭50500.1P                                                            辽沙岭500-1
B     吉丰徐0 500.1O              -136                                          吉丰徐徐侧DK2       C   0 L-136
B     辽沙岭51500.1P                                                            辽沙岭500-2
B     辽徐家50500.1O                                                            辽徐家500
B     吉蒲梨0 500.1N              -136                                          吉蒲梨梨侧DK2       C   0 L-136
B     呼伦呼伦220.1Q65.2832.64                                                  呼伦呼伦变220KV
B     呼伦满变220.1Q28.56 8.16                                                  呼伦满变220KV
B     黑阿城22220.1E97.7532.13                                                  黑阿城220           C   0 L  -0
B     黑阿南22220.1E 66.321.79                                                  黑阿南220           C   0 L  -0
B     黑巴彦22220.1R                                                            黑巴彦220           C   0 L  -0
B     黑北安22220.1F27.128.913                                                  黑北安220           C   0 L  -0
B     黑克山22220.1F5.1851.704                                                  黑克山220           C   0 L  -0
B     黑海伦22220.1R20.926.876                                                  黑海伦220           C   0 L  -0
B     黑孙吴22220.1F3.6551.202                                                  黑孙吴220
B     黑宾州22220.1E 37.412.29                                                  黑宾州220           C   0 L  -0
B     黑尚志22220.1E 56.118.44                                                  黑尚志220           C   0 L  -0
B     黑城乡22220.1E 83.327.38                                                  黑城乡220
B     黑哈西22220.1E216.871.25                                                  黑哈西220-1
B     黑春蕾22220.1M80.7526.54                                                  黑春蕾220           C   0 L  -0
B     黑达连22220.1J17.425.723                                                  黑达连220           C   0 L  -0
B     黑方正22220.1J                                                            黑方正220
B     黑西格木220.1J16.415.402                                                  黑西格木220         C   0 L  -0
B     黑大庆22220.1M                                                            黑大庆220
B     黑大庆1D220.1M                                                            黑大庆1D
B     黑火炬22220.1M148.848.89                                                  黑火炬220
B     黑庆北22220.1M140.3 46.1                                                  黑庆北220
B     黑大庆50500.1M                                                            黑大庆500
B     黑大庆1B500.1M                                                            黑大庆1B
B     黑大庆S1 35.1M              -173                                          黑大庆S1            C   0 L-173
B     黑东郊22220.1S38.2512.57                                                  黑东郊220           C   0 L  -0
B     黑方永永500.1E              -136                                          黑方永永侧DK1       C   0 L-136
B     黑方永0 500.1E              -136                                          黑方永永侧DK2       C   0 L-136
B     黑方正1D220.1J                                                            黑方正1D
B     黑莲花22220.1J                                                            黑莲花220
B     黑方正50500.1J                                                            黑方正500
B     黑方正1B500.1J                                                            黑方正1B
B     黑方正Y1 35.1J              -180                                          黑方正Y1            C   0 L-180
B     黑丰乐22220.1M38.2512.57                                                  黑丰乐220           C   0 L  -0
B     黑冯屯22220.1C                                                            黑冯屯220
B     黑冯屯1D220.1C                                                            黑冯屯1D
B     黑齐北郊220.1C 45.915.09                                                  黑齐北郊220         C   0 L  -0
B     黑齐一变220.1C 37.412.29                                                  黑齐一变220
B     黑拉东22220.1C53.55 17.6                                                  黑拉东220           C   0 L  -0
B     黑冯屯50500.1C                                                            黑冯屯500
B     黑冯屯1B500.1C                                                            黑冯屯1B
B     黑冯屯K1500.1C              -124                                          黑冯屯K1            C   0 L-124
B     黑冯屯51500.1C                                                            黑冯屯500-0
B     黑冯屯K3500.1C              -248                                          黑冯屯K3            C   0 L-248
B     黑冯屯S1 35.1C              -180                                          黑冯屯S1            C   0 L-180
B     黑富二22220.1C                                                            黑富二220
B     黑富一变220.1C55.2518.16                                                  黑富一变220         C   0 L  -0
B     黑富二L1110.1C 29.2 9.93                                                  黑富二L1
B     黑富热11110.1C57.8519.31                                                  黑富热110
B     黑北钢22220.1C2.2041.103                                                  黑北钢220
B     黑哈三A0220.1E                                                            黑哈三A厂220
B     黑江北22220.1E 65.7 21.6                                                  黑江北220
B     黑哈三B0220.1E                                                            黑哈三B厂220
B     黑康金22220.1R22.737.471                                                  黑康金220           C   0 L  -0
B     黑哈南22220.1E                                                            黑哈南220
B     黑哈东22220.1E202.3 66.5                                                  黑哈东220
B     黑平房22220.1E146.248.06                                                  黑平房220
B     黑哈南1D220.1E                                                            黑哈南1D
B     黑哈西20220.1E                                                            黑哈西220-2
B     黑双城22220.1E 96.931.85                                                  黑双城220           C   0 L  -0
B     黑哈南1B500.1E                                                            黑哈南1B
B     黑哈南S1 35.1E                                                            黑哈南S1            C   0 L-150
B     黑哈一22220.1E 238.78.23                                                  黑哈一220           C   0 L  -0
B     黑正阳22220.1E89.2529.34                                                  黑正阳220-1         C   0 L  -0
B     黑正阳20220.1E89.2529.34                                                  黑正阳220-2         C   0 L  -0
B     黑海林22220.1H21.256.985                                                  黑海林220           C   0 L  -0
B     黑牡北变220.1H80.7526.54                                                  黑牡北变220         C   0 L  -0
B     黑温春22220.1H46.7515.37                                                  黑温春220           C   0 L  -0
B     黑绥化22220.1R13.744.518                                                  黑绥化220           C   0 L  -0
B     黑鹤岗A0220.1S                                                            黑鹤岗A厂220
B     黑鹿林22220.1S 59.519.56                                                  黑鹿林220           C   0 L  -0
B     黑红旗11110.1M3.1181.559                                                  黑红旗110
B     黑龙凤11110.1M                                                            黑龙凤110
B     黑红旗22220.1M127.541.91                                                  黑红旗220
B     黑大庆自220.1M                                                            黑大庆自备220
B     黑红兴隆220.1T38.2512.57                                                  黑红兴隆220         C   0 L  -0
B     黑双鸭山220.1T                                                            黑双鸭山A厂220
B     黑虎林22220.1U  8.52.794                                                  黑虎林220           C   0 L  -0
B     黑密山22220.1U  17.5.588                                                  黑密山220           C   0 L  -0
B     黑中本22220.1M 59.519.56                                                  黑中本220           C   0 L  -0
B     黑鸡西变220.1U21.256.985                                                  黑鸡西变220         C   0 L  -0
B     黑恒山22220.1U  17.5.588                                                  黑恒山220
B     黑鸡西厂220.1U                                                            黑鸡西厂220
B     黑杏花22220.1U55.2518.16                                                  黑杏花220           C   0 L  -0
B     黑梨树22220.1U  8.52.794                                                  黑梨树220           C   0 L  -0
B     黑群方方500.1J              -109                                          黑群方方侧DK        C   0 L-109
B     黑佳木斯220.1J                                                            黑佳木斯A厂220
B     黑佳南变220.1J30.18 9.91                                                  黑佳南变220         C   0 L  -0
B     黑群林22220.1J                                                            黑群林220
B     黑双鸭0 220.1T31.4510.34                                                  黑双鸭山变220       C   0 L  -0
B     黑金山22220.1S29.759.779                                                  黑金山220           C   0 L  -0
B     黑伊春22220.1S31.4510.34                                                  黑伊春220           C   0 L  -0
B     黑镜泊湖220.1H                                                            黑镜泊湖220
B     黑镜老厂220.1H                                                            黑镜老厂220
B     黑嫩东22220.1F14.544.778                                                  黑嫩东220           C   0 L  -0
B     黑牡二B0220.1H                                                            黑牡二B厂220
B     黑群林50500.1J                                                            黑群林500
B     黑群林L1 35.1J              -180                                          黑群林L1            C   0 L-180
B     黑穆棱22220.1H  3.41.118                                                  黑穆棱220           C   0 L  -0
B     黑七台河500.1V                                                            黑七台河厂1B
B     黑七台0 500.1V                                                            黑七台河厂500
B     黑七台1 220.1V                                                            黑七台河厂1D
B     黑七台2 220.1V                                                            黑七台河厂220
B     黑七台3 220.1V16.155.309                                                  黑七台河变220       C   0 L  -0
B     黑新民22220.1V 30.610.06                                                  黑新民220           C   0 L  -0
B     黑七台4  66.1V                                                            黑七台河厂L1        C   0 L-120
B     黑方正51500.1J                                                            黑方正500DK         C   0 L-136
B     黑南苑22220.1C28.05 9.22                                                  黑南苑220
B     黑让胡路220.1M 136. 44.7                                                  黑让胡路220
B     黑铁力22220.1R21.256.985                                                  黑铁力220           C   0 L  -0
B     黑五常22220.1E87.5528.78                                                  黑五常220           C   0 L  -0
B     黑先锋22220.1M97.7532.13                                                  黑先锋220           C   0 L  -0
B     黑肇东22220.1E87.5528.78                                                  黑肇东220           C   0 L  -0
B     黑富锦22220.1J6.8852.263                                                  黑富锦220
B     黑建三江220.1J 10.23.353                                                  黑建三江220
B     黑太平22220.1E115.6  38.                                                  黑太平220
B     黑宏伟22220.1M                                                            黑宏伟220
B     黑建龙22220.1T39.0415.86                                                  黑建龙220
B     黑绥芬河220.1H29.759.779                                                  黑绥芬河220
B     黑庆安22220.1R9.8173.227                                                  黑庆安220           C   0 L  -0
B     黑林口22220.1U19.556.426                                                  黑林口220           C   0 L  -0
B     黑牡二A0220.1H                                                            黑牡二A厂220
B     黑芦家22220.1J 24.48.019                                                  黑芦家220           C   0 L  -0
B     黑曙光22220.1C 27.28.941                                                  黑曙光220           C   0 L  -0
B     黑尼尔基220.1C                                                            黑尼尔基220
B     黑永源22220.1E                                                            黑永源220
B     黑中心22220.1E166.654.76                                                  黑中心220
B     黑永源1D220.1E                                                            黑永源1D
B     黑永源1B500.1E                                                            黑永源1B
B     黑永源L1 66.1E              -120                                          黑永源L1            C   0 L-120
B     黑林海1B500.1H                                                            黑林海1B
B     黑林海22220.1H                                                            黑林海220
B     黑林海1D220.1H                                                            黑林海1D
B     黑林海L1 66.1H                                                            黑林海L1            C   0 L -60
B     黑方林林500.1J              -109                                          黑方林林侧DK        C   0 L-109
B     黑城南22220.1H  34.11.18                                                  黑城南220
B     黑方林方500.1J              -109                                          黑方林方侧DK        C   0 L-109
B     黑福利22220.1T36.5512.01                                                  黑福利220
B     黑双鸭1 220.1T                                                            黑双鸭山热电厂220
B     黑哈南2B500.1E                                                            黑哈南2B
B     黑哈南2D220.1E                                                            黑哈南2D
B     黑哈南S2 35.1E                                                            黑哈南S2            C   0 L-113
B     黑鹤岗B0500.1S                                                            黑鹤岗B厂500
B     黑群方群500.1J              -109                                          黑群方群侧DK        C   0 L-109
B     黑集贤50500.1T                                                            黑集贤500
B     黑塔河22220.1W                                                            黑塔河220
B     黑呼玛22220.1W                                                            黑呼玛220
B     黑浩良河220.1J  80. 26.4                                                  黑浩良河220
B     黑多宝山220.1F38.2512.57                                                  黑多宝山220
B     黑加格达220.1W                                                            黑加格达奇220
B     黑饶河22220.1T  .85.2794                                                  黑饶河220
B     黑和平22220.1T 2.55.8382                                                  黑和平220
B     黑前锋22220.1J 4.761.565                                                  黑前锋220
B     黑环山22220.1S 42.513.97                                                  黑环山220
B     黑亚布力220.1E 32.310.62                                                  黑亚布力220
B     黑齐热厂220.1C                                                            黑齐热厂220
B     黑冯屯A1500.1C                                                            黑冯屯A1
B     黑冯屯A0500.1C                                                            黑冯屯A12
B     黑冯屯A3500.1C                                                            黑冯屯A3
B     黑冯屯A2500.1C                                                            黑冯屯A34
B     黑冯屯A4500.1C                                                            黑冯屯A2
B     黑冯屯A5500.1C                                                            黑冯屯A4
B     黑双鸭2 500.1T                                                            黑双鸭山B厂500
B     黑大庆S2 35.1M              -60.                                          黑大庆S2            C   0 L-180
B     黑群兴群500.1E              -163                                          黑群兴群侧DK        C   0 L-163
B     黑群兴兴500.1E              -163                                          黑群兴兴侧DK        C   0 L-163
B     黑兴福50500.1E                                                            黑兴福500
B     黑兴福L1 66.1E              -240                                          黑兴福L1            C   0 L-240
B     黑松北L1 66.1E              -60.                                          黑松北L1            C   0 L-240
B     黑兴福22220.1E                                                            黑兴福220
B     黑新立22220.1R15.775.183                                                  黑新立220
B     黑鹤南22220.1S38.2512.57                                                  黑鹤南220
B     黑开发22220.1M142.546.97                                                  黑开发220
B     黑哈一热220.1E                                                            黑哈一热厂220
B     黑雅鲁河220.1C 18.76.147                                                  黑雅鲁河220
B     黑群力变220.1E  8.52.794                                                  黑群力变220
B     黑新区22220.1E  8.52.794                                                  黑新区220
B     黑换流22220.1F                                                            黑换流220
...
BS    俄等值50500.1E                  99999999.9999.-99991.05                   俄等值500
B     黑换流1B500.1E                                                            黑换流1B
B     黑换流1D220.1E                                                            黑换流1D
B     黑兴福1B500.1E                                                            黑兴福1B
B     黑兴福1D220.1E                                                            黑兴福1D
B     黑富裕22220.1C 10.23.353                                                  黑富裕220
B     黑富裕三220.1C                                                            黑富裕三峡220
B     黑抚远22220.1J3.6551.201                                                  黑抚远220
B     黑肇源22220.1M  51.16.76                                                  黑肇源220
B     黑兰西22220.1R.0085.0009                                                  黑兰西220
B     黑绥滨22220.1S 42.513.97                                                  黑绥滨220
B     黑绥滨吉220.1S                                                            黑绥滨吉成220
B     黑劲松22220.1W  17. 5.95                                                  黑劲松220
B     黑七台5 500.1V              -136                                          黑七台河厂500DK     C   0 L-136
B     黑集前甲500.1T              -150                                          黑集前甲集贤侧DK    C   0 L-150
B     黑前进50500.1T                                                            黑前进500
B     黑前进22220.1T                                                            黑前进220
B     黑漠河66 66.1W2.091.6874                                                  黑漠河66
B     黑漠河厂 66.1W                                                            黑漠河厂66
B     黑加格0  66.1W4.2161.386                                                  黑加格达奇66
B     黑加格1  66.1W                                                            黑加格达奇厂66
B     黑呼玛66 66.1W .731.2403                                                  黑呼玛66
B     黑呼玛厂 66.1W                                                            黑呼玛厂66
B     黑塔河66 66.1W1.275.4191                                                  黑塔河66
B     黑塔河厂 66.1W                                                            黑塔河厂66
B     黑呼玛G110.51X                                                            黑呼玛G1
.B     黑呼玛G110.51X                   50.   6.   2.                            黑呼玛G1
B     黑呼玛G210.51X                                                            黑呼玛G2
.B     黑呼玛G210.51X                   50.  7.5   2.                            黑呼玛G2
B     黑加G1   6.31X                                                            黑加G1
.B     黑加G1   6.31X                   50.   6.   2.                            黑加G1
B     黑加G2   6.31X                                                            黑加G2
.B     黑加G2   6.31X                   50.   6.   2.                            黑加G2
B     黑加G3   6.31X                                                            黑加G3
.B     黑加G3   6.31X                   50.   6.   2.                            黑加G3
B     黑加G4   6.31X                                                            黑加G4
.B     黑加G4   6.31X                   50.   6.   2.                            黑加G4
B     黑孙吴35 35.1F                                                            黑孙吴35
B     黑孙吴厂 35.1F                                                            黑孙吴厂35
B     黑白石22220.1U  17. 5.95                                                  黑白石220
B     黑和平风220.1M                                                            黑和平风电220
B     黑大庆新220.1M                                                            黑大庆新海风电220
B     黑爱华风220.1F                                                            黑爱华风电220
B     黑草原风220.1M                                                            黑草原风电220
B     黑西牵22220.1E                                                            黑西牵220-1
B     黑西牵20220.1E                                                            黑西牵220-2
B     黑石青山220.1U                                                            黑石青山风电220
B     黑双北牵220.1E                                                            黑双北牵220
B     黑西城热220.1M                                                            黑西城热电220
B     黑锐驰风220.1E                                                            黑锐驰风电220
B     黑安邦河220.1T                                                            黑安邦河风电220
B     黑胡铁岭220.1J                                                            黑胡铁岭风电220
B     黑甘南22220.1C                                                            黑甘南220
B     黑城子河220.1U                                                            黑城子河220
B     黑泰来22220.1C                                                            黑泰来220
B     黑任兴22220.1V  17. 5.95                                                  黑任兴220
B     黑长安22220.1J 10.23.353                                                  黑长安220
B     黑佳B厂2220.1J                                                            黑佳B厂220
B     黑伊春热220.1S                                                            黑伊春热电220
B     黑工大22220.1E  17. 5.95                                                  黑工大220
B     黑青冈22220.1R  17. 5.95                                                  黑青冈220
B     黑宏泰风220.1M                                                            黑宏泰风电220
B     黑东堤风220.1J                                                            黑东堤风电220
B     黑大个岭220.1E                                                            黑大个岭风电220
B     黑东园风220.1M                                                            黑东园风电220
B     黑中丹风220.1M                                                            黑中丹风电220
B     黑爱建22220.1E .085.0255                                                  黑爱建220
B     黑前进L1 66.1T              -120                                          黑前进L1            C   0 L-120
B     吉通化22220.1Y                                                            吉通化220
B     吉水洞22220.1Y  65.   9.                                                  吉水洞220           C   0 L  -0
B     吉白山变220.1Z  40.  12.                                                  吉白山变220         C   0 L  -0
B     吉白城变220.1L 101.  22.                                                  吉白城变220         C   0 L  -0
B     吉洮南22220.1L  48.  11.                                                  吉洮南220           C   0 L  -0
B     吉农安22220.1G  75.  25.                                                  吉农安220           C   0 L  -0
B     吉永安风220.1L                                                            吉永安风电220
B     吉白山22220.1Z                                                            吉白山220-1
B     吉东丰22220.1N                                                            吉东丰220
B     吉白山20220.1Z                                                            吉白山220-2
B     吉梅河22220.1Y  20.   5.                                                  吉梅河220           C   0 L  -0
B     吉白山21220.1Z                                                            吉白山220-3
B     吉白山23220.1Z                                                            吉白山220-4
B     吉高集岗220.1Z  50.  17.                                                  吉高集岗220         C   0 L  -0
B     吉白山24220.1Z                                                            吉白山220-5
B     吉包家22220.1K                                                            吉包家220
B     吉包家1D220.1K                                                            吉包家1D
B     吉新立22220.1K  50.  15.                                                  吉新立220           C   0 L  -0
B     吉哈达湾220.1K 100.  15.                                                  吉哈达湾220         C   0 L  -0
B     吉包家1B500.1K                                                            吉包家1B
B     吉丰满22220.1K                                                            吉丰满220
B     吉舒兰22220.1K  30.   6.                                                  吉舒兰220           C   0 L  -0
B     吉包家L1 66.1K                                                            吉包家L1            C 120 L-240
B     吉长北郊220.1G 160.  36.                                                  吉长北郊220         C   0 L  -0
B     吉长东郊220.1G 135.  35.                                                  吉长东郊220         C   0 L  -0
B     吉合心22220.1G                                                            吉合心220
B     吉长春22220.1G 165.  15.                                                  吉长春220           C   0 L  -0
B     吉平泉22220.1G 32.5  11.                                                  吉平泉220-2
B     吉长二热220.1G                                                            吉长二热220-2
B     吉三家子220.1G 105.  33.                                                  吉三家子220         C   0 L  -0
B     吉铁东22220.1K  40.  10.                                                  吉铁东220           C   0 L  -0
B     吉维昌22220.1K  40.  12.                                                  吉维昌220           C   0 L  -0
B     吉长二0 220.1G                                                            吉长二热220-1
B     吉双阳22220.1G  60.  13.                                                  吉双阳220           C   0 L  -0
B     吉长岭22220.1G  35.  17.                                                  吉长岭220           C   0 L  -0
B     吉西郊22220.1G 160.  60.                                                  吉西郊220           C   0 L  -0
B     吉松源22220.1L                                                            吉松源220
B     吉前郭22220.1L  32.  25.                                                  吉前郭220           C   0 L  -0
B     吉扶余22220.1L  77.  17.                                                  吉扶余220           C   0 L  -0
B     吉城南22220.1K  50.  13.                                                  吉城南220-1         C   0 L  -0
B     吉城西22220.1K  65.  15.                                                  吉城西220           C   0 L  -0
B     吉城南20220.1K                                                            吉城南220-2
B     吉德惠22220.1G  82.  20.                                                  吉德惠220           C   0 L  -0
B     吉九台22220.1G  62.  13.                                                  吉九台220           C   0 L  -0
B     吉东丰1D220.1N                                                            吉东丰1D
B     吉苗胜22220.1N  30.   4.                                                  吉苗胜220           C   0 L  -0
B     吉三岔子220.1Z  41.  16.                                                  吉三岔子220         C   0 L  -0
B     吉东丰2B500.1N                                                            吉东丰2B
B     吉东丰2D220.1N                                                            吉东丰2D
B     吉东丰51500.1N                                                            吉东丰500-2
B     吉东丰1B500.1N                                                            吉东丰1B
B     吉东丰L1 66.1N                                                            吉东丰L1            C   0 L-180
B     吉东丰L2 66.1N                                                            吉东丰L2            C   0 L-120
B     吉敦化22220.1I  50.  20.                                                  吉敦化220-1         C   0 L  -0
B     吉两江22220.1I              -20.                                          吉两江220           C   0 L -20
B     吉蛟河22220.1K  21.   2.                                                  吉蛟河220           C   0 L  -0
B     吉延西22220.1I  30.  10.                                                  吉延西220           C   0 L -20
B     吉磐石22220.1K  60.  20.                                                  吉磐石220           C   0 L  -0
B     吉公主22220.1N  63.  10.                                                  吉公主220           C   0 L  -0
B     吉伊通22220.1G  28.   5.                                                  吉伊通220           C   0 L  -0
B     吉松花江220.1K                                                            吉松花江厂220-1
B     吉金城22220.1G                                                            吉金城220
B     吉金城1D220.1G                                                            吉金城1D
B     吉金城2D220.1G                                                            吉金城2D
B     吉合心1D220.1G                                                            吉合心1D
B     吉玉隆变220.1G  90.  40.                                                  吉玉隆变220         C   0 L  -0
B     吉合心1B500.1G                                                            吉合心1B
B     吉金城50500.1G                                                            吉金城500
B     吉梨金10500.1N              -136                                          吉梨金1梨侧DK       C   0 L-136
B     吉合心S1 66.1G                                                            吉合心S1            C  60 L-180
B     吉红石22220.1K  35.   5.                                                  吉红石220
B     吉桦甸22220.1K  36.  13.                                                  吉桦甸220           C   0 L  -0
B     吉化肥22220.1K  45.  15.                                                  吉化肥220-1
B     吉化肥20220.1K  45.  15.                                                  吉化肥220-2
B     吉浑江22220.1Z                                                            吉浑江220
B     吉广发22220.1L  25.   3.                                                  吉广发220           C   0 L  -0
B     吉三井子220.1L                                                            吉三井子风电220
B     吉吉林热220.1K                                                            吉吉林热电厂220
B     吉金厂22220.1Y  35.   7.                                                  吉金厂220           C   0 L  -0
B     吉立业22220.1N  70.   8.                                                  吉立业220           C   0 L  -0
B     吉四平22220.1N  64.  16.                                                  吉四平220           C   0 L  -0
B     吉玉林22220.1K  16.   5.                                                  吉玉林220           C   0 L  -0
B     吉巨丰22220.1N  82.  13.                                                  吉巨丰220           C   0 L  -0
B     吉辽源热220.1N                                                            吉辽源热电厂220
B     吉辽源22220.1N  30.   6.                                                  吉辽源220           C   0 L  -0
B     吉永清22220.1N  35.   8.                                                  吉永清220           C   0 L  -0
B     吉郑家22220.1Y  15.   4.                                                  吉郑家220           C   0 L  -0
B     吉乔嘉22220.1L  35.  10.                                                  吉乔嘉220           C   0 L  -0
B     吉松江22220.1Z  64.  32.    -20.                                          吉松江220           C   0 L -20
B     吉榆树22220.1G  45.                                                       吉榆树220           C   0 L  -0
B     吉双辽变220.1N  33.  12.                                                  吉双辽变220         C   0 L  -0
B     吉双辽厂500.1N                                                            吉双辽厂500
B     吉云峰22220.1Z8.5991.228                                                  吉云峰220
B     吉四平热220.1N                                                            吉四平热电厂220
B     吉小山22220.1Z                                                            吉小山220
B     吉图门22220.1I  15.                                                       吉图门220           C   0 L  -0
B     吉延东22220.1I  45.  10.                                                  吉延东220           C   0 L  -0
B     吉靖边变220.1I  75.  30.                                                  吉靖边变220         C   0 L  -0
B     吉五棵22220.1G  50.  13.                                                  吉五棵220           C   0 L  -0
B     吉平安22220.1I                                                            吉平安220-1
B     吉镇赉22220.1L  45.  12.                                                  吉镇赉220           C   0 L  -0
B     吉致富22220.1N  41.  12.                                                  吉致富220           C   0 L  -0
B     吉临江22220.1Z  40.  13.                                                  吉临江220           C   0 L  -0
B     吉珲春厂220.1I                                                            吉珲春厂220
B     吉长流22220.1Y  35.   7.                                                  吉长流220           C   0 L  -0
B     吉二道江220.1Y                                                            吉二道江220
B     吉国庆22220.1N  25.   5.                                                  吉国庆220           C   0 L  -0
B     吉桃源22220.1Y  90.  30.                                                  吉桃源220           C   0 L  -0
B     吉正阳22220.1G  55.   9.                                                  吉正阳220           C   0 L  -0
B     吉汪清22220.1I  10.                                                       吉汪清220           C   0 L  -0
B     吉同发风220.1L                                                            吉同发风电220
B     吉双龙风220.1G                                                            吉双龙风电T220
B     吉王子风220.1G                                                            吉王子风电220
B     吉大安22220.1L  49.  12.                                                  吉大安220           C   0 L  -0
B     吉明城22220.1K  45.   8.                                                  吉明城220           C   0 L  -0
B     吉平安1D220.1I                                                            吉平安1D
B     吉平安1B500.1I                                                            吉平安1B
B     吉平安L1 66.1I              -180                                          吉平安L1            C   0 L-180
B     吉合心2B500.1G                                                            吉合心2B
B     吉合心2D220.1G                                                            吉合心2D
B     吉合心S2 66.1G                                                            吉合心S2            C   0 L-240
B     吉平包包500.1K              -109                                          吉平包包侧DK        C   0 L-109
B     吉平包平500.1I              -109                                          吉平包平侧DK        C   0 L-109
B     吉金珠22220.1K  80.  12.                                                  吉金珠220           C   0 L  -0
B     吉靖宇22220.1Z  20.   8.                                                  吉靖宇220           C   0 L  -0
B     吉集安22220.1Y  13.   2.                                                  吉集安220           C   0 L  -0
B     吉珲春新220.1I                                                            吉珲春新厂220
B     吉通丰通500.1Y              -109                                          吉通丰通侧DK1       C   0 L-109
B     吉通化50500.1Y                                                            吉通化500
B     吉通丰丰500.1N              -109                                          吉通丰丰侧DK2       C   0 L-109
B     吉白山热220.1Z                                                            吉白山热电厂220
B     吉通化热220.1Y                                                            吉通化热电厂220
B     吉龙嘉50500.1G                                                            吉龙嘉500
B     吉龙嘉1B500.1G                                                            吉龙嘉1B
B     吉龙嘉22220.1G                                                            吉龙嘉220
B     吉龙嘉1D220.1G                                                            吉龙嘉1D
B     吉敦化20220.1I                                                            吉敦化220-2
B     吉和龙22220.1I  30.   5.                                                  吉和龙220           C   0 L  -0
B     吉包家2B500.1K                                                            吉包家2B
B     吉长山50500.1L                                                            吉长山500
B     吉松源50500.1L                                                            吉松源500
B     吉松源L1 66.1L              -60.                                          吉松源L1            C  60 L -60
B     吉平泉20220.1G 32.5  11.                                                  吉平泉220-1
B     吉乾安22220.1L  63.   5.                                                  吉乾安220           C   0 L  -0
B     吉长白22220.1Z   3.   2.                                                  吉长白220           C   0 L  -0
B     吉包家2D220.1K                                                            吉包家2D
.B     吉南城22220.1G                                                            吉南城220
B     吉梨树22220.1N                                                            吉梨树220
B     吉白云22220.1Z  75.  24.                                                  吉白云220           C   0 L  -0
B     吉大岗风220.1L                                                            吉大岗风电220
B     吉长三热220.1G                                                            吉长三热220
.B     吉怀德22220.1N                                                            吉怀德220
.B     吉新丰满220.1K                                                            吉新丰满220
B     吉九台厂500.1G                                                            吉九台厂500
B     吉双辽0 220.1G                                                            吉双辽厂220
B     吉松白白500.1L              -109                                          吉松白白侧DK        C   0 L-109
B     吉甜水变500.1L                                                            吉甜水变500
B     吉松白松500.1L              -109                                          吉松白松侧DK2       C   0 L-109
B     吉白城发500.1L                                                            吉白城发电500
B     吉甜水0 220.1L                                                            吉甜水变220
B     吉新艾里220.1L                                                            吉新艾里风电T220
B     吉长山变220.1L  70.   3.                                                  吉长山变220
B     吉来福风220.1L                                                            吉来福风电220
B     吉龙嘉S1 66.1G              -180                                          吉龙嘉S1            C   0 L-180
B     吉乐胜风220.1L                                                            吉乐胜风电T220
B     吉双龙0 220.1G                                                            吉双龙风电220
B     吉新艾0 220.1L                                                            吉新艾里风电220
B     吉乐胜0 220.1L                                                            吉乐胜风电220
B     吉舍力风220.1L                                                            吉舍力风电T220
B     吉舍力0 220.1L                                                            吉舍力风电220
B     吉六道江220.1Y  45.  10.                                                  吉六道江220         C   0 L  -0
B     吉到保风220.1L                                                            吉到保风电220
B     吉秀水风220.1N                                                            吉秀水风电220
B     吉黎明22220.1N  15.   6.                                                  吉黎明220           C   0 L  -0
B     吉松合合500.1G              -136                                          吉松合合侧DK        C   0 L-136
B     吉双沟22220.1Z                                                            吉双沟220
B     吉马力风220.1L                                                            吉马力风电220
B     吉镇赉风220.1L                                                            吉镇赉风电T220
B     吉镇赉0 220.1L                                                            吉镇赉风电220
B     吉黑鱼泡220.1L                                                            吉黑鱼泡风电220
B     吉黑鱼0 220.1L                                                            吉黑鱼泡风电T220
B     吉宝山风220.1L                                                            吉宝山风电T220
B     吉洮北风220.1L                                                            吉洮北风电T220
B     吉北正风220.1L                                                            吉北正风电220
B     吉向阳风220.1L                                                            吉向阳风电T220
B     吉向阳0 220.1L                                                            吉向阳风电220
B     吉永茂风220.1L                                                            吉永茂风电T220
B     吉长四22220.1G                                                            吉长四220
B     吉松合松500.1L              -136                                          吉松合松侧DK2       C   0 L-136
B     吉四平电220.1N                                                            吉四平电厂220
B     吉延吉热220.1I                                                            吉延吉热电220
B     吉白城热220.1L                                                            吉白城热电220
B     吉松源L2 66.1L              -60.                                          吉松源L2            C   0 L -60
B     吉甜水1  66.1L              -120                                          吉甜水变L1          C  60 L-120
B     吉甜水2  66.1L              -60.                                          吉甜水变L2          C  60 L-120
B     吉才字风220.1L                                                            吉才字风电220
.B     吉甄峰风220.1I                                                            吉甄峰风电220
B     吉海坨风220.1L                                                            吉海坨风电220
B     吉海坨0 220.1L                                                            吉海坨风电T220
B     吉风水山220.1L                                                            吉风水山风电220
B     吉水字风220.1L                                                            吉水字风电T220
B     吉腾字风220.1L                                                            吉腾字风电T220
B     吉永茂0 220.1L                                                            吉永茂风电220
B     吉那木斯220.1N                                                            吉那木斯风电220
B     吉那木0 220.1N                                                            吉那木斯风电T220
B     吉鑫丰风220.1N                                                            吉鑫丰风电220
B     吉山门风220.1N                                                            吉山门风电220
B     吉米沙子220.1G  30.   8.                                                  吉米沙子220         C   0 L  -0
B     吉长一热220.1G                                                            吉长一热220
B     吉江南热220.1K                                                            吉江南热电220
B     吉金城1B500.1G                                                            吉金城1B
B     吉金城2B500.1G                                                            吉金城2B
B     吉煤矸石220.1Z                                                            吉煤矸石220-1
B     吉煤矸0 220.1Z                                                            吉煤矸石220-2
B     吉金城L1 66.1G                                                            吉金城L1            C   0 L -90
B     吉金城L2 66.1G                                                            吉金城L2            C   0 L -90
.B     吉通榆L1 66.1L                                                            吉通榆L1            C   0 L-125
.B     吉通榆50500.1L                                                            吉通榆500
B     吉梨树S1 66.1N              -60.                                          吉梨树S1            C   0 L-120
B     吉梨树S2 66.1N                                                            吉梨树S2            C   0 L -60
B     吉通化L1 66.1Y              -60.                                          吉通化L1            C   0 L -60
B     吉塔东22220.1I   6.   1.                                                  吉塔东220
B     吉吉林东 66.1K              -90.                                          吉吉林东L1          C   0 L -90
B     吉吉林0  66.1K              -90.                                          吉吉林东L2          C   0 L -90
B     吉吉林1 220.1K                                                            吉吉林东220
.B     吉通榆龙220.1L                                                            吉通榆龙源风电220   C  40 L   0
.B     吉通榆22220.1L                                                            吉通榆220
.B     吉通榆中220.1L                                                            吉通榆中广核风电220
.B     吉通榆华220.1L                                                            吉通榆华电风电T220
.B     吉通榆0 220.1L                                                            吉通榆华电风电220
.B     吉通榆安220.1L                                                            吉通榆安华风电T220
.B     吉通榆1 220.1L                                                            吉通榆安华风电220   C 100 L   0
.B     吉通榆富220.1L                                                            吉通榆富汇风电220   C  40 L   0
.B     吉通榆新220.1L                                                            吉通榆新华风电220   C 100 L   0
.B     吉通榆团220.1L                                                            吉通榆团结风电220   C 100 L   0
.B     吉通榆协220.1L                                                            吉通榆协和风电220   C  40 L   0
.B     吉通榆瞻220.1L                                                            吉通榆瞻榆风电220   C  40 L   0
B     吉汽车22220.1G  45.  20.                                                  吉汽车220
B     吉平安L2 66.1I                                                            吉平安L2            C   0 L-120
B     吉吉林2 500.1K                                                            吉吉林东500
B     吉通化L2 66.1Y              -60.                                          吉通化L2            C   0 L -60
B     吉东丰L3 66.1N                                                            吉东丰L3            C   0 L-180
B     吉金英22220.1Z  40.  13.                                                  吉金英220           C   0 L  -0
B     吉平安2B500.1I                                                            吉平安2B
B     吉通化2D220.1Y                                                            吉通化2D
B     吉平安2D220.1I                                                            吉平安2D
B     吉甜水1B500.1L                                                            吉甜水1B
B     吉甜水2B500.1L                                                            吉甜水2B
B     吉甜水1D220.1L                                                            吉甜水1D
B     吉甜水2D220.1L                                                            吉甜水2D
B     吉松源2D220.1L                                                            吉松源2D
B     吉松源1D220.1L                                                            吉松源1D
B     吉松源1B500.1L                                                            吉松源1B
B     吉松源2B500.1L                                                            吉松源2B
B     吉通化1D220.1Y                                                            吉通化1D
B     吉通化2B500.1Y                                                            吉通化2B
B     吉宝山0 220.1L                                                            吉宝山风电220
B     吉洮北0 220.1L                                                            吉洮北风电220
B     吉新立风220.1L                                                            吉新立风电220
B     吉腾字0 220.1L                                                            吉腾字风电220
B     吉水字0 220.1L                                                            吉水字风电220
B     吉梨树1B500.1N                                                            吉梨树1B
B     吉梨树2B500.1N                                                            吉梨树2B
B     吉梨树1D220.1N                                                            吉梨树1D
B     吉梨树2D220.1N                                                            吉梨树2D
B     吉东丰3D220.1N                                                            吉东丰3D
B     吉东丰3B500.1N                                                            吉东丰3B
B     吉通化1B500.1Y                                                            吉通化1B
B     吉同发0  35.2A                                                            吉同发风电G1        C  13 L   0
.B     吉同发0  35.2A                  49.3 49.3                                 吉同发风电G1        C  13 L   0
B     吉同发1  35.2A                                                            吉同发风电G2        C  25 L   0
.B     吉同发1  35.2A                   100100.3                                 吉同发风电G2        C  25 L   0
B     吉同发2  35.2A                                                            吉同发风电G3        C  25 L   0
.B     吉同发2  35.2A                   100100.3                                 吉同发风电G3        C  25 L   0
B     吉同发3  35.2A                                                            吉同发风电G4        C  13 L   0
.B     吉同发3  35.2A                  49.5 49.5                                 吉同发风电G4        C  13 L   0
B     吉同发4  35.2A                                                            吉同发风电G5        C  13 L   0
.B     吉同发4  35.2A                   51.  51.                                 吉同发风电G5        C  13 L   0
B     吉同发5  35.2A                                                            吉同发风电G6        C  13 L   0
.B     吉同发5  35.2A                  49.5 49.5                                 吉同发风电G6        C  13 L   0
B     吉同发6  35.2A                                                            吉同发风电G7        C  13 L   0
.B     吉同发6  35.2A                   51.  51.                                 吉同发风电G7        C  13 L   0
B     吉向阳1  35.2A                                                            吉向阳风电G1        C  24 L   0
.B     吉向阳1  35.2A                   100100.5                                 吉向阳风电G1        C  24 L   0
B     吉向阳2  35.2A                                                            吉向阳风电G2        C  24 L   0
.B     吉向阳2  35.2A                   100100.5                                 吉向阳风电G2        C  24 L   0
B     吉向阳3  35.2A                                                            吉向阳风电G3        C  24 L   0
.B     吉向阳3  35.2A                   100100.5                                 吉向阳风电G3        C  24 L   0
B     吉向阳4  35.2A                                                            吉向阳风电G4        C  24 L   0
.B     吉向阳4  35.2A                   99.  99.                                 吉向阳风电G4        C  24 L   0
B     吉新立0  35.2A                                                            吉新立风电G1        C  20 L   0
.B     吉新立0  35.2A                   99.  99.                                 吉新立风电G1        C  20 L   0
B     吉到保0  35.2A                                                            吉到保风电G1        C  15 L   0
.B     吉到保0  35.2A                  49.5  99.                                 吉到保风电G1        C  15 L   0
B     吉黑鱼1  35.2A                                                            吉黑鱼泡风电G1      C  25 L   0
.B     吉黑鱼1  35.2A                   99.  99.                                 吉黑鱼泡风电G1      C  25 L   0
B     吉黑鱼2  35.2A               25.                                          吉黑鱼泡风电G2      C  25 L   0
.B     吉黑鱼2  35.2A               25.49.5  99.                                 吉黑鱼泡风电G2      C  25 L   0
B     吉宝山1  35.2A                                                            吉宝山风电G1        C  15 L   0
.B     吉宝山1  35.2A                  49.5 49.5                                 吉宝山风电G1        C  15 L   0
B     吉宝山2  35.2A                                                            吉宝山风电G2        C  15 L   0
.B     吉宝山2  35.2A                  49.5 49.5                                 吉宝山风电G2        C  15 L   0
B     吉洮北1  35.2A                                                            吉洮北风电G3        C  15 L   0
.B     吉洮北1  35.2A                       49.5                                 吉洮北风电G3        C  15 L   0
B     吉洮北2  35.2A                                                            吉洮北风电G4        C  15 L   0
.B     吉洮北2  35.2A                       49.5                                 吉洮北风电G4        C  15 L   0
B     吉马力0  35.2A               10.                                          吉马力风电G1        C  10 L   0
.B     吉马力0  35.2A               10.     49.5                                 吉马力风电G1        C  10 L   0
B     吉马力1  35.2A                                                            吉马力风电G2        C  10 L   0
.B     吉马力1  35.2A                       49.5                                 吉马力风电G2        C  10 L   0
B     吉镇赉1 10.52A                                                            吉镇赉风电G1        C  10 L   0
.B     吉镇赉1 10.52A                       49.5                                 吉镇赉风电G1        C  10 L   0
B     吉镇赉2  35.2A                                                            吉镇赉风电G2        C  10 L   0
.B     吉镇赉2  35.2A                       49.5                                 吉镇赉风电G2        C  10 L   0
B     吉大岗0  35.2A                                                            吉大岗风电G1        C  12 L   0
.B     吉大岗0  35.2A                  120. 120.                                 吉大岗风电G1        C  12 L   0
B     吉大岗1  35.2A                                                            吉大岗风电G2        C  12 L   0
.B     吉大岗1  35.2A                  120. 120.                                 吉大岗风电G2        C  12 L   0
B     吉来福0  35.2A                                                            吉来福风电G1        C  10 L   0
.B     吉来福0  35.2A                   99.  99.                                 吉来福风电G1        C  10 L   0
B     吉来福1  35.2A                                                            吉来福风电G2        C  10 L   0
.B     吉来福1  35.2A                   99.  99.                                 吉来福风电G2        C  10 L   0
B     吉风水0  35.2A                                                            吉风水山风电G1      C  20 L   0
.B     吉风水0  35.2A                   99.  99.                                 吉风水山风电G1      C  20 L   0
B     吉海坨1  35.2A                                                            吉海坨风电G1        C  20 L   0
.B     吉海坨1  35.2A                  49.5  99.                                 吉海坨风电G1        C  20 L   0
...